<?xml version="1.0" encoding="UTF-8"?>

<!-- generated on 2026-03-16 10:48:21 by Eclipse SUMO netconvert Version 1.18.0
<configuration xmlns:xsi="http://www.w3.org/2001/XMLSchema-instance" xsi:noNamespaceSchemaLocation="http://sumo.dlr.de/xsd/netconvertConfiguration.xsd">

    <input>
        <opendrive-files value="UMNITestbed.xodr"/>
    </input>

    <output>
        <output-file value="UMNITestbed.net.xml"/>
        <output.original-names value="true"/>
    </output>

    <processing>
        <geometry.min-radius.fix value="true"/>
    </processing>

    <tls_building>
        <tls.discard-simple value="true"/>
        <tls.guess-signals value="true"/>
    </tls_building>

    <junctions>
        <no-turnarounds.except-deadend value="true"/>
    </junctions>

    <formats>
        <opendrive.import-all-lanes value="true"/>
        <opendrive.curve-resolution value="1"/>
    </formats>

</configuration>
-->

<net version="1.16" junctionCornerDetail="5" rectangularLaneCut="true" limitTurnSpeed="5.50" xmlns:xsi="http://www.w3.org/2001/XMLSchema-instance" xsi:noNamespaceSchemaLocation="http://sumo.dlr.de/xsd/net_file.xsd">

    <location netOffset="15.00,15.00" convBoundary="0.00,0.00,40.00,40.00" origBoundary="-18.50,-18.50,28.50,28.50" projParameter="!"/>


    <edge id=":112_0" function="internal">
        <lane id=":112_0_0" index="0" speed="9.38" length="20.78" width="0.50" shape="-4.38,8.50 -3.58,2.86 -1.16,-1.16 2.86,-3.58 8.50,-4.38">
            <param key="origId" value="118_2"/>
        </lane>
        <lane id=":112_0_1" index="1" disallow="all" speed="9.18" length="19.87" width="0.63" shape="-3.82,8.50 -3.05,3.11 -0.74,-0.74 3.11,-3.05 8.50,-3.82">
            <param key="origId" value="118_1"/>
        </lane>
        <lane id=":112_0_2" index="2" disallow="pedestrian tram rail_urban rail rail_electric rail_fast ship" speed="8.62" length="16.53" width="3.50" shape="-1.75,8.50 -1.11,4.02 0.81,0.81 4.02,-1.11 8.50,-1.75">
            <param key="origId" value="115_-1"/>
        </lane>
    </edge>
    <edge id=":112_3" function="internal">
        <lane id=":112_3_0" index="0" speed="5.35" length="6.64" width="0.50" shape="8.50,4.38 6.70,4.64 5.41,5.41 4.64,6.70 4.39,8.50">
            <param key="origId" value="114_-2"/>
        </lane>
        <lane id=":112_3_1" index="1" disallow="all" speed="5.71" length="7.55" width="0.63" shape="8.50,3.82 6.45,4.11 4.99,4.99 4.11,6.45 3.82,8.50">
            <param key="origId" value="114_-1"/>
        </lane>
        <lane id=":112_3_2" index="2" disallow="pedestrian tram rail_urban rail rail_electric rail_fast ship" speed="7.11" length="10.89" width="3.50" shape="8.50,1.75 5.55,2.17 3.44,3.44 2.17,5.55 1.75,8.50">
            <param key="origId" value="113_1"/>
        </lane>
    </edge>
    <edge id=":12_0" function="internal">
        <lane id=":12_0_0" index="0" speed="5.43" length="6.85" width="0.50" shape="15.62,8.63 15.35,6.78 14.55,5.45 13.22,4.65 11.36,4.38">
            <param key="origId" value="27_-2"/>
        </lane>
        <lane id=":12_0_1" index="1" disallow="all" speed="5.79" length="7.77" width="0.63" shape="16.18,8.63 15.88,6.53 14.98,5.02 13.47,4.12 11.36,3.82">
            <param key="origId" value="27_-1"/>
        </lane>
        <lane id=":12_0_2" index="2" disallow="pedestrian tram rail_urban rail rail_electric rail_fast ship" speed="7.17" length="11.10" width="3.50" shape="18.25,8.63 17.82,5.62 16.53,3.47 14.38,2.18 11.36,1.75">
            <param key="origId" value="26_-1"/>
        </lane>
    </edge>
    <edge id=":12_3" function="internal">
        <lane id=":12_3_0" index="0" disallow="pedestrian tram rail_urban rail rail_electric rail_fast ship" speed="8.67" length="16.75" width="3.50" shape="18.25,8.63 18.90,4.09 20.85,0.85 24.09,-1.10 28.64,-1.75">
            <param key="origId" value="15_-1"/>
        </lane>
    </edge>
    <edge id=":12_4" function="internal">
        <lane id=":12_4_0" index="0" speed="5.43" length="6.85" width="0.50" shape="28.63,4.38 26.78,4.65 25.45,5.45 24.65,6.78 24.38,8.64">
            <param key="origId" value="14_-2"/>
        </lane>
        <lane id=":12_4_1" index="1" disallow="all" speed="5.79" length="7.77" width="0.63" shape="28.63,3.82 26.53,4.12 25.02,5.02 24.12,6.53 23.82,8.64">
            <param key="origId" value="14_-1"/>
        </lane>
        <lane id=":12_4_2" index="2" disallow="pedestrian tram rail_urban rail rail_electric rail_fast ship" speed="7.17" length="11.10" width="3.50" shape="28.63,1.75 25.62,2.18 23.47,3.47 22.18,5.62 21.75,8.64">
            <param key="origId" value="13_1"/>
        </lane>
    </edge>
    <edge id=":12_7" function="internal">
        <lane id=":12_7_0" index="0" disallow="pedestrian tram rail_urban rail rail_electric rail_fast ship" speed="17.88" length="17.27" width="3.50" shape="28.63,1.75 11.36,1.75">
            <param key="origId" value="25_1"/>
        </lane>
    </edge>
    <edge id=":12_8" function="internal">
        <lane id=":12_8_0" index="0" speed="17.88" length="17.27" width="0.50" shape="11.37,-4.38 28.64,-4.38">
            <param key="origId" value="24_-3"/>
        </lane>
        <lane id=":12_8_1" index="1" disallow="all" speed="17.88" length="17.27" width="0.63" shape="11.37,-3.82 28.64,-3.82">
            <param key="origId" value="24_-2"/>
        </lane>
        <lane id=":12_8_2" index="2" disallow="pedestrian tram rail_urban rail rail_electric rail_fast ship" speed="17.88" length="17.27" width="3.50" shape="11.37,-1.75 28.64,-1.75">
            <param key="origId" value="24_-1"/>
        </lane>
    </edge>
    <edge id=":12_11" function="internal">
        <lane id=":12_11_0" index="0" disallow="pedestrian tram rail_urban rail rail_electric rail_fast ship" speed="8.67" length="4.87" width="3.50" shape="11.37,-1.75 15.91,-1.10 16.15,-0.96">
            <param key="origId" value="28_-1"/>
        </lane>
    </edge>
    <edge id=":12_12" function="internal">
        <lane id=":12_12_0" index="0" disallow="pedestrian tram rail_urban rail rail_electric rail_fast ship" speed="8.67" length="11.88" width="3.50" shape="16.15,-0.96 19.15,0.85 21.10,4.09 21.75,8.64">
            <param key="origId" value="28_-1"/>
        </lane>
    </edge>
    <edge id=":123_0" function="internal">
        <lane id=":123_0_0" index="0" speed="5.43" length="6.85" width="0.50" shape="35.62,28.63 35.35,26.78 34.55,25.45 33.22,24.65 31.36,24.38">
            <param key="origId" value="129_-2"/>
        </lane>
        <lane id=":123_0_1" index="1" disallow="all" speed="5.79" length="7.77" width="0.63" shape="36.18,28.63 35.88,26.53 34.98,25.02 33.47,24.12 31.36,23.82">
            <param key="origId" value="129_-1"/>
        </lane>
        <lane id=":123_0_2" index="2" disallow="pedestrian tram rail_urban rail rail_electric rail_fast ship" speed="7.17" length="11.10" width="3.50" shape="38.25,28.63 37.82,25.62 36.53,23.47 34.38,22.18 31.36,21.75">
            <param key="origId" value="124_-1"/>
        </lane>
    </edge>
    <edge id=":123_3" function="internal">
        <lane id=":123_3_0" index="0" disallow="pedestrian tram rail_urban rail rail_electric rail_fast ship" speed="17.88" length="17.27" width="3.50" shape="38.25,28.63 38.25,11.36">
            <param key="origId" value="136_-1"/>
        </lane>
    </edge>
    <edge id=":123_4" function="internal">
        <lane id=":123_4_0" index="0" speed="17.88" length="17.27" width="0.50" shape="44.38,11.37 44.38,28.64">
            <param key="origId" value="135_3"/>
        </lane>
        <lane id=":123_4_1" index="1" disallow="all" speed="17.88" length="17.27" width="0.63" shape="43.82,11.37 43.82,28.64">
            <param key="origId" value="135_2"/>
        </lane>
        <lane id=":123_4_2" index="2" disallow="pedestrian tram rail_urban rail rail_electric rail_fast ship" speed="17.88" length="17.27" width="3.50" shape="41.75,11.37 41.75,28.64">
            <param key="origId" value="135_1"/>
        </lane>
    </edge>
    <edge id=":123_7" function="internal">
        <lane id=":123_7_0" index="0" disallow="pedestrian tram rail_urban rail rail_electric rail_fast ship" speed="8.67" length="4.87" width="3.50" shape="41.75,11.37 41.10,15.91 40.96,16.15">
            <param key="origId" value="138_1"/>
        </lane>
    </edge>
    <edge id=":123_12" function="internal">
        <lane id=":123_12_0" index="0" disallow="pedestrian tram rail_urban rail rail_electric rail_fast ship" speed="8.67" length="11.88" width="3.50" shape="40.96,16.15 39.15,19.15 35.91,21.10 31.36,21.75">
            <param key="origId" value="138_1"/>
        </lane>
    </edge>
    <edge id=":123_8" function="internal">
        <lane id=":123_8_0" index="0" speed="5.43" length="6.85" width="0.50" shape="31.37,15.62 33.22,15.35 34.55,14.55 35.35,13.22 35.62,11.36">
            <param key="origId" value="137_-2"/>
        </lane>
        <lane id=":123_8_1" index="1" disallow="all" speed="5.79" length="7.77" width="0.63" shape="31.37,16.18 33.47,15.88 34.98,14.98 35.88,13.47 36.18,11.36">
            <param key="origId" value="137_-1"/>
        </lane>
        <lane id=":123_8_2" index="2" disallow="pedestrian tram rail_urban rail rail_electric rail_fast ship" speed="7.17" length="11.10" width="3.50" shape="31.37,18.25 34.38,17.82 36.53,16.53 37.82,14.38 38.25,11.36">
            <param key="origId" value="143_-1"/>
        </lane>
    </edge>
    <edge id=":123_11" function="internal">
        <lane id=":123_11_0" index="0" disallow="pedestrian tram rail_urban rail rail_electric rail_fast ship" speed="8.67" length="16.75" width="3.50" shape="31.37,18.25 35.91,18.90 39.15,20.85 41.10,24.09 41.75,28.64">
            <param key="origId" value="125_-1"/>
        </lane>
    </edge>
    <edge id=":144_0" function="internal">
        <lane id=":144_0_0" index="0" speed="9.38" length="20.78" width="0.50" shape="44.38,31.50 43.58,37.14 41.16,41.16 37.14,43.58 31.50,44.38">
            <param key="origId" value="145_-2"/>
        </lane>
        <lane id=":144_0_1" index="1" disallow="all" speed="9.18" length="19.87" width="0.63" shape="43.82,31.50 43.05,36.89 40.74,40.74 36.89,43.05 31.50,43.82">
            <param key="origId" value="145_-1"/>
        </lane>
        <lane id=":144_0_2" index="2" disallow="pedestrian tram rail_urban rail rail_electric rail_fast ship" speed="8.62" length="16.53" width="3.50" shape="41.75,31.50 41.11,35.98 39.19,39.19 35.98,41.11 31.50,41.75">
            <param key="origId" value="150_1"/>
        </lane>
    </edge>
    <edge id=":144_3" function="internal">
        <lane id=":144_3_0" index="0" speed="5.35" length="6.64" width="0.50" shape="31.50,35.62 33.30,35.36 34.59,34.59 35.36,33.30 35.62,31.50">
            <param key="origId" value="154_-2"/>
        </lane>
        <lane id=":144_3_1" index="1" disallow="all" speed="5.71" length="7.55" width="0.63" shape="31.50,36.18 33.55,35.89 35.01,35.01 35.89,33.55 36.18,31.50">
            <param key="origId" value="154_-1"/>
        </lane>
        <lane id=":144_3_2" index="2" disallow="pedestrian tram rail_urban rail rail_electric rail_fast ship" speed="7.11" length="10.89" width="3.50" shape="31.50,38.25 34.45,37.83 36.56,36.56 37.83,34.45 38.25,31.50">
            <param key="origId" value="153_-1"/>
        </lane>
    </edge>
    <edge id=":155_0" function="internal">
        <lane id=":155_0_0" index="0" speed="5.35" length="6.64" width="0.50" shape="35.62,8.50 35.36,6.70 34.59,5.41 33.30,4.64 31.50,4.38">
            <param key="origId" value="156_-2"/>
        </lane>
        <lane id=":155_0_1" index="1" disallow="all" speed="5.71" length="7.55" width="0.63" shape="36.18,8.50 35.89,6.45 35.01,4.99 33.55,4.11 31.50,3.82">
            <param key="origId" value="156_-1"/>
        </lane>
        <lane id=":155_0_2" index="2" disallow="pedestrian tram rail_urban rail rail_electric rail_fast ship" speed="7.11" length="10.89" width="3.50" shape="38.25,8.50 37.83,5.55 36.56,3.44 34.45,2.17 31.50,1.75">
            <param key="origId" value="165_-1"/>
        </lane>
    </edge>
    <edge id=":155_3" function="internal">
        <lane id=":155_3_0" index="0" speed="9.38" length="20.78" width="0.50" shape="31.50,-4.38 37.14,-3.58 41.16,-1.16 43.58,2.86 44.38,8.50">
            <param key="origId" value="157_2"/>
        </lane>
        <lane id=":155_3_1" index="1" disallow="all" speed="9.18" length="19.87" width="0.63" shape="31.50,-3.82 36.89,-3.05 40.74,-0.74 43.05,3.11 43.82,8.50">
            <param key="origId" value="157_1"/>
        </lane>
        <lane id=":155_3_2" index="2" disallow="pedestrian tram rail_urban rail rail_electric rail_fast ship" speed="8.62" length="16.53" width="3.50" shape="31.50,-1.75 35.98,-1.11 39.19,0.81 41.11,4.02 41.75,8.50">
            <param key="origId" value="162_-1"/>
        </lane>
    </edge>
    <edge id=":166_0" function="internal">
        <lane id=":166_0_0" index="0" speed="9.38" length="20.78" width="0.50" shape="8.50,44.38 2.86,43.58 -1.16,41.16 -3.58,37.14 -4.38,31.50">
            <param key="origId" value="168_2"/>
        </lane>
        <lane id=":166_0_1" index="1" disallow="all" speed="9.18" length="19.87" width="0.63" shape="8.50,43.82 3.11,43.05 -0.74,40.74 -3.05,36.89 -3.82,31.50">
            <param key="origId" value="168_1"/>
        </lane>
        <lane id=":166_0_2" index="2" disallow="pedestrian tram rail_urban rail rail_electric rail_fast ship" speed="8.62" length="16.53" width="3.50" shape="8.50,41.75 4.02,41.11 0.81,39.19 -1.11,35.98 -1.75,31.50">
            <param key="origId" value="173_1"/>
        </lane>
    </edge>
    <edge id=":166_3" function="internal">
        <lane id=":166_3_0" index="0" speed="5.35" length="6.64" width="0.50" shape="4.38,31.50 4.64,33.30 5.41,34.59 6.70,35.36 8.50,35.62">
            <param key="origId" value="167_-2"/>
        </lane>
        <lane id=":166_3_1" index="1" disallow="all" speed="5.71" length="7.55" width="0.63" shape="3.82,31.50 4.11,33.55 4.99,35.01 6.45,35.89 8.50,36.18">
            <param key="origId" value="167_-1"/>
        </lane>
        <lane id=":166_3_2" index="2" disallow="pedestrian tram rail_urban rail rail_electric rail_fast ship" speed="7.11" length="10.89" width="3.50" shape="1.75,31.50 2.17,34.45 3.44,36.56 5.55,37.83 8.50,38.25">
            <param key="origId" value="176_1"/>
        </lane>
    </edge>
    <edge id=":33_0" function="internal">
        <lane id=":33_0_0" index="0" speed="5.43" length="6.85" width="0.50" shape="15.62,28.63 15.35,26.78 14.55,25.45 13.22,24.65 11.36,24.38">
            <param key="origId" value="54_-2"/>
        </lane>
        <lane id=":33_0_1" index="1" disallow="all" speed="5.79" length="7.77" width="0.63" shape="16.18,28.63 15.88,26.53 14.98,25.02 13.47,24.12 11.36,23.82">
            <param key="origId" value="54_-1"/>
        </lane>
        <lane id=":33_0_2" index="2" disallow="pedestrian tram rail_urban rail rail_electric rail_fast ship" speed="7.17" length="11.10" width="3.50" shape="18.25,28.63 17.82,25.62 16.53,23.47 14.38,22.18 11.36,21.75">
            <param key="origId" value="55_-1"/>
        </lane>
    </edge>
    <edge id=":33_3" function="internal">
        <lane id=":33_3_0" index="0" disallow="pedestrian tram rail_urban rail rail_electric rail_fast ship" speed="17.88" length="17.27" width="3.50" shape="18.25,28.63 18.25,11.36">
            <param key="origId" value="66_-1"/>
        </lane>
    </edge>
    <edge id=":33_4" function="internal">
        <lane id=":33_4_0" index="0" disallow="pedestrian tram rail_urban rail rail_electric rail_fast ship" speed="8.67" length="4.87" width="3.50" shape="18.25,28.63 18.90,24.09 19.04,23.85">
            <param key="origId" value="36_-1"/>
        </lane>
    </edge>
    <edge id=":33_20" function="internal">
        <lane id=":33_20_0" index="0" disallow="pedestrian tram rail_urban rail rail_electric rail_fast ship" speed="8.67" length="11.88" width="3.50" shape="19.04,23.85 20.85,20.85 24.09,18.90 28.64,18.25">
            <param key="origId" value="36_-1"/>
        </lane>
    </edge>
    <edge id=":33_5" function="internal">
        <lane id=":33_5_0" index="0" speed="5.43" length="6.85" width="0.50" shape="28.63,24.38 26.78,24.65 25.45,25.45 24.65,26.78 24.38,28.64">
            <param key="origId" value="35_-2"/>
        </lane>
        <lane id=":33_5_1" index="1" disallow="all" speed="5.79" length="7.77" width="0.63" shape="28.63,23.82 26.53,24.12 25.02,25.02 24.12,26.53 23.82,28.64">
            <param key="origId" value="35_-1"/>
        </lane>
        <lane id=":33_5_2" index="2" disallow="pedestrian tram rail_urban rail rail_electric rail_fast ship" speed="7.17" length="11.10" width="3.50" shape="28.63,21.75 25.62,22.18 23.47,23.47 22.18,25.62 21.75,28.64">
            <param key="origId" value="34_1"/>
        </lane>
    </edge>
    <edge id=":33_8" function="internal">
        <lane id=":33_8_0" index="0" disallow="pedestrian tram rail_urban rail rail_electric rail_fast ship" speed="17.88" length="17.27" width="3.50" shape="28.63,21.75 11.36,21.75">
            <param key="origId" value="46_1"/>
        </lane>
    </edge>
    <edge id=":33_9" function="internal">
        <lane id=":33_9_0" index="0" disallow="pedestrian tram rail_urban rail rail_electric rail_fast ship" speed="8.67" length="16.75" width="3.50" shape="28.63,21.75 24.09,21.10 20.85,19.15 18.90,15.91 18.25,11.36">
            <param key="origId" value="48_1"/>
        </lane>
    </edge>
    <edge id=":33_10" function="internal">
        <lane id=":33_10_0" index="0" speed="5.43" length="6.85" width="0.50" shape="24.38,11.37 24.65,13.22 25.45,14.55 26.78,15.35 28.64,15.62">
            <param key="origId" value="47_-2"/>
        </lane>
        <lane id=":33_10_1" index="1" disallow="all" speed="5.79" length="7.77" width="0.63" shape="23.82,11.37 24.12,13.47 25.02,14.98 26.53,15.88 28.64,16.18">
            <param key="origId" value="47_-1"/>
        </lane>
        <lane id=":33_10_2" index="2" disallow="pedestrian tram rail_urban rail rail_electric rail_fast ship" speed="7.17" length="11.10" width="3.50" shape="21.75,11.37 22.18,14.38 23.47,16.53 25.62,17.82 28.64,18.25">
            <param key="origId" value="53_1"/>
        </lane>
    </edge>
    <edge id=":33_13" function="internal">
        <lane id=":33_13_0" index="0" disallow="pedestrian tram rail_urban rail rail_electric rail_fast ship" speed="17.88" length="17.27" width="3.50" shape="21.75,11.37 21.75,28.64">
            <param key="origId" value="65_1"/>
        </lane>
    </edge>
    <edge id=":33_14" function="internal">
        <lane id=":33_14_0" index="0" disallow="pedestrian tram rail_urban rail rail_electric rail_fast ship" speed="8.67" length="4.87" width="3.50" shape="21.75,11.37 21.10,15.91 20.96,16.15">
            <param key="origId" value="68_1"/>
        </lane>
    </edge>
    <edge id=":33_21" function="internal">
        <lane id=":33_21_0" index="0" disallow="pedestrian tram rail_urban rail rail_electric rail_fast ship" speed="8.67" length="11.88" width="3.50" shape="20.96,16.15 19.15,19.15 15.91,21.10 11.36,21.75">
            <param key="origId" value="68_1"/>
        </lane>
    </edge>
    <edge id=":33_15" function="internal">
        <lane id=":33_15_0" index="0" speed="5.43" length="6.85" width="0.50" shape="11.37,15.62 13.22,15.35 14.55,14.55 15.35,13.22 15.62,11.36">
            <param key="origId" value="71_-2"/>
        </lane>
        <lane id=":33_15_1" index="1" disallow="all" speed="5.79" length="7.77" width="0.63" shape="11.37,16.18 13.47,15.88 14.98,14.98 15.88,13.47 16.18,11.36">
            <param key="origId" value="71_-1"/>
        </lane>
        <lane id=":33_15_2" index="2" disallow="pedestrian tram rail_urban rail rail_electric rail_fast ship" speed="7.17" length="11.10" width="3.50" shape="11.37,18.25 14.38,17.82 16.53,16.53 17.82,14.38 18.25,11.36">
            <param key="origId" value="67_-1"/>
        </lane>
    </edge>
    <edge id=":33_18" function="internal">
        <lane id=":33_18_0" index="0" disallow="pedestrian tram rail_urban rail rail_electric rail_fast ship" speed="17.88" length="17.27" width="3.50" shape="11.37,18.25 28.64,18.25">
            <param key="origId" value="45_-1"/>
        </lane>
    </edge>
    <edge id=":33_19" function="internal">
        <lane id=":33_19_0" index="0" disallow="pedestrian tram rail_urban rail rail_electric rail_fast ship" speed="8.67" length="16.75" width="3.50" shape="11.37,18.25 15.91,18.90 19.15,20.85 21.10,24.09 21.75,28.64">
            <param key="origId" value="56_-1"/>
        </lane>
    </edge>
    <edge id=":72_0" function="internal">
        <lane id=":72_0_0" index="0" speed="17.88" length="17.27" width="0.50" shape="-4.38,28.63 -4.38,11.36">
            <param key="origId" value="92_-3"/>
        </lane>
        <lane id=":72_0_1" index="1" disallow="all" speed="17.88" length="17.27" width="0.63" shape="-3.82,28.63 -3.82,11.36">
            <param key="origId" value="92_-2"/>
        </lane>
        <lane id=":72_0_2" index="2" disallow="pedestrian tram rail_urban rail rail_electric rail_fast ship" speed="17.88" length="17.27" width="3.50" shape="-1.75,28.63 -1.75,11.36">
            <param key="origId" value="92_-1"/>
        </lane>
    </edge>
    <edge id=":72_3" function="internal">
        <lane id=":72_3_0" index="0" disallow="pedestrian tram rail_urban rail rail_electric rail_fast ship" speed="8.67" length="4.87" width="3.50" shape="-1.75,28.63 -1.10,24.09 -0.96,23.85">
            <param key="origId" value="75_-1"/>
        </lane>
    </edge>
    <edge id=":72_12" function="internal">
        <lane id=":72_12_0" index="0" disallow="pedestrian tram rail_urban rail rail_electric rail_fast ship" speed="8.67" length="11.88" width="3.50" shape="-0.96,23.85 0.85,20.85 4.09,18.90 8.64,18.25">
            <param key="origId" value="75_-1"/>
        </lane>
    </edge>
    <edge id=":72_4" function="internal">
        <lane id=":72_4_0" index="0" speed="5.43" length="6.85" width="0.50" shape="8.64,24.38 6.78,24.65 5.45,25.45 4.65,26.78 4.38,28.64">
            <param key="origId" value="73_-2"/>
        </lane>
        <lane id=":72_4_1" index="1" disallow="all" speed="5.79" length="7.77" width="0.63" shape="8.64,23.82 6.53,24.12 5.02,25.02 4.12,26.53 3.82,28.64">
            <param key="origId" value="73_-1"/>
        </lane>
        <lane id=":72_4_2" index="2" disallow="pedestrian tram rail_urban rail rail_electric rail_fast ship" speed="7.17" length="11.10" width="3.50" shape="8.64,21.75 5.62,22.18 3.47,23.47 2.18,25.62 1.75,28.64">
            <param key="origId" value="74_1"/>
        </lane>
    </edge>
    <edge id=":72_7" function="internal">
        <lane id=":72_7_0" index="0" disallow="pedestrian tram rail_urban rail rail_electric rail_fast ship" speed="8.67" length="16.75" width="3.50" shape="8.64,21.75 4.09,21.10 0.85,19.15 -1.10,15.91 -1.75,11.36">
            <param key="origId" value="80_1"/>
        </lane>
    </edge>
    <edge id=":72_8" function="internal">
        <lane id=":72_8_0" index="0" speed="5.43" length="6.85" width="0.50" shape="4.39,11.37 4.65,13.22 5.45,14.55 6.78,15.35 8.64,15.62">
            <param key="origId" value="85_-2"/>
        </lane>
        <lane id=":72_8_1" index="1" disallow="all" speed="5.79" length="7.77" width="0.63" shape="3.82,11.37 4.12,13.47 5.02,14.98 6.53,15.88 8.64,16.18">
            <param key="origId" value="85_-1"/>
        </lane>
        <lane id=":72_8_2" index="2" disallow="pedestrian tram rail_urban rail rail_electric rail_fast ship" speed="7.17" length="11.10" width="3.50" shape="1.75,11.37 2.18,14.38 3.47,16.53 5.62,17.82 8.64,18.25">
            <param key="origId" value="79_1"/>
        </lane>
    </edge>
    <edge id=":72_11" function="internal">
        <lane id=":72_11_0" index="0" disallow="pedestrian tram rail_urban rail rail_electric rail_fast ship" speed="17.88" length="17.27" width="3.50" shape="1.75,11.37 1.75,28.64">
            <param key="origId" value="91_1"/>
        </lane>
    </edge>
    <edge id=":93_0" function="internal">
        <lane id=":93_0_0" index="0" speed="17.88" length="17.27" width="0.50" shape="28.63,44.38 11.36,44.38">
            <param key="origId" value="111_3"/>
        </lane>
        <lane id=":93_0_1" index="1" disallow="all" speed="17.88" length="17.27" width="0.63" shape="28.63,43.82 11.36,43.82">
            <param key="origId" value="111_2"/>
        </lane>
        <lane id=":93_0_2" index="2" disallow="pedestrian tram rail_urban rail rail_electric rail_fast ship" speed="17.88" length="17.27" width="3.50" shape="28.63,41.75 11.36,41.75">
            <param key="origId" value="111_1"/>
        </lane>
    </edge>
    <edge id=":93_3" function="internal">
        <lane id=":93_3_0" index="0" disallow="pedestrian tram rail_urban rail rail_electric rail_fast ship" speed="8.67" length="4.87" width="3.50" shape="28.63,41.75 24.09,41.10 23.85,40.96">
            <param key="origId" value="96_1"/>
        </lane>
    </edge>
    <edge id=":93_12" function="internal">
        <lane id=":93_12_0" index="0" disallow="pedestrian tram rail_urban rail rail_electric rail_fast ship" speed="8.67" length="11.88" width="3.50" shape="23.85,40.96 20.85,39.15 18.90,35.91 18.25,31.36">
            <param key="origId" value="96_1"/>
        </lane>
    </edge>
    <edge id=":93_4" function="internal">
        <lane id=":93_4_0" index="0" speed="5.43" length="6.85" width="0.50" shape="24.38,31.37 24.65,33.22 25.45,34.55 26.78,35.35 28.64,35.62">
            <param key="origId" value="94_-2"/>
        </lane>
        <lane id=":93_4_1" index="1" disallow="all" speed="5.79" length="7.77" width="0.63" shape="23.82,31.37 24.12,33.47 25.02,34.98 26.53,35.88 28.64,36.18">
            <param key="origId" value="94_-1"/>
        </lane>
        <lane id=":93_4_2" index="2" disallow="pedestrian tram rail_urban rail rail_electric rail_fast ship" speed="7.17" length="11.10" width="3.50" shape="21.75,31.37 22.18,34.38 23.47,36.53 25.62,37.82 28.64,38.25">
            <param key="origId" value="95_1"/>
        </lane>
    </edge>
    <edge id=":93_7" function="internal">
        <lane id=":93_7_0" index="0" disallow="pedestrian tram rail_urban rail rail_electric rail_fast ship" speed="8.67" length="16.75" width="3.50" shape="21.75,31.37 21.10,35.91 19.15,39.15 15.91,41.10 11.36,41.75">
            <param key="origId" value="102_1"/>
        </lane>
    </edge>
    <edge id=":93_8" function="internal">
        <lane id=":93_8_0" index="0" speed="5.43" length="6.85" width="0.50" shape="11.37,35.62 13.22,35.35 14.55,34.55 15.35,33.22 15.62,31.36">
            <param key="origId" value="101_-2"/>
        </lane>
        <lane id=":93_8_1" index="1" disallow="all" speed="5.79" length="7.77" width="0.63" shape="11.37,36.18 13.47,35.88 14.98,34.98 15.88,33.47 16.18,31.36">
            <param key="origId" value="101_-1"/>
        </lane>
        <lane id=":93_8_2" index="2" disallow="pedestrian tram rail_urban rail rail_electric rail_fast ship" speed="7.17" length="11.10" width="3.50" shape="11.37,38.25 14.38,37.82 16.53,36.53 17.82,34.38 18.25,31.36">
            <param key="origId" value="100_-1"/>
        </lane>
    </edge>
    <edge id=":93_11" function="internal">
        <lane id=":93_11_0" index="0" disallow="pedestrian tram rail_urban rail rail_electric rail_fast ship" speed="17.88" length="17.27" width="3.50" shape="11.37,38.25 28.64,38.25">
            <param key="origId" value="110_-1"/>
        </lane>
    </edge>

    <edge id="-0" from="144" to="123" priority="1" type="sidewalk|shoulder|driving" shape="40.00,31.50 40.00,28.50">
        <lane id="-0_0" index="0" speed="17.88" length="2.87" width="0.50" shape="35.62,31.50 35.62,28.63" type="sidewalk">
            <param key="origId" value="0_-3"/>
        </lane>
        <lane id="-0_1" index="1" disallow="all" speed="17.88" length="2.87" width="0.63" shape="36.18,31.50 36.18,28.63" type="shoulder">
            <param key="origId" value="0_-2"/>
        </lane>
        <lane id="-0_2" index="2" disallow="pedestrian tram rail_urban rail rail_electric rail_fast ship" speed="17.88" length="2.87" width="3.50" shape="38.25,31.50 38.25,28.63" type="driving">
            <param key="origId" value="0_-1"/>
        </lane>
    </edge>
    <edge id="-1" from="123" to="155" priority="1" type="sidewalk|shoulder|driving" shape="40.00,11.50 40.00,8.50">
        <lane id="-1_0" index="0" speed="17.88" length="2.86" width="0.50" shape="35.62,11.36 35.62,8.50" type="sidewalk">
            <param key="origId" value="1_-3"/>
        </lane>
        <lane id="-1_1" index="1" disallow="all" speed="17.88" length="2.86" width="0.63" shape="36.18,11.36 36.18,8.50" type="shoulder">
            <param key="origId" value="1_-2"/>
        </lane>
        <lane id="-1_2" index="2" disallow="pedestrian tram rail_urban rail rail_electric rail_fast ship" speed="17.88" length="2.86" width="3.50" shape="38.25,11.36 38.25,8.50" type="driving">
            <param key="origId" value="1_-1"/>
        </lane>
    </edge>
    <edge id="-10" from="166" to="93" priority="1" type="sidewalk|shoulder|driving" shape="8.50,40.00 11.50,40.00">
        <lane id="-10_0" index="0" speed="17.88" length="2.87" width="0.50" shape="8.50,35.62 11.37,35.62" type="sidewalk">
            <param key="origId" value="10_-3"/>
        </lane>
        <lane id="-10_1" index="1" disallow="all" speed="17.88" length="2.87" width="0.63" shape="8.50,36.18 11.37,36.18" type="shoulder">
            <param key="origId" value="10_-2"/>
        </lane>
        <lane id="-10_2" index="2" disallow="pedestrian tram rail_urban rail rail_electric rail_fast ship" speed="17.88" length="2.87" width="3.50" shape="8.50,38.25 11.37,38.25" type="driving">
            <param key="origId" value="10_-1"/>
        </lane>
    </edge>