<?xml version="1.0" encoding="UTF-8"?>

<!-- generated on 2026-06-29 02:21:14 by Eclipse SUMO netconvert Version 1.18.0
<configuration xmlns:xsi="http://www.w3.org/2001/XMLSchema-instance" xsi:noNamespaceSchemaLocation="http://sumo.dlr.de/xsd/netconvertConfiguration.xsd">

    <input>
        <opendrive-files value="DuckieTown_extended.xodr"/>
    </input>

    <output>
        <output-file value="DuckieTown_extendednet.xml"/>
        <output.original-names value="true"/>
    </output>

    <processing>
        <geometry.min-radius.fix value="true"/>
    </processing>

    <junctions>
        <no-turnarounds.except-deadend value="true"/>
    </junctions>

    <formats>
        <opendrive.import-all-lanes value="true"/>
        <opendrive.curve-resolution value="1"/>
    </formats>

</configuration>
-->

<net version="1.16" junctionCornerDetail="5" rectangularLaneCut="true" limitTurnSpeed="5.50" xmlns:xsi="http://www.w3.org/2001/XMLSchema-instance" xsi:noNamespaceSchemaLocation="http://sumo.dlr.de/xsd/net_file.xsd">

    <location netOffset="155.00,155.00" convBoundary="0.00,0.00,320.00,320.00" origBoundary="0.000000,0.000000,0.000000,0.000000" projParameter="+proj=tmerc +lat_0=4.5218473838787e-05 +lon_0=4.49157642068771e-05 +k=1 +x_0=0 +y_0=0 +datum=WGS84 +units=m +vunits=m +no_defs"/>


    <edge id=":105_0" function="internal">
        <lane id=":105_0_0" index="0" disallow="pedestrian tram rail_urban rail rail_electric rail_fast ship" speed="7.41" length="11.91" width="3.50" shape="158.25,189.13 157.79,185.90 156.40,183.60 154.10,182.21 150.86,181.75">
            <param key="origId" value="123_1"/>
            <param key="signalID" value="805"/>
        </lane>
    </edge>
    <edge id=":105_1" function="internal">
        <lane id=":105_1_0" index="0" disallow="pedestrian tram rail_urban rail rail_electric rail_fast ship" speed="17.88" length="18.27" width="3.50" shape="158.25,189.13 158.25,170.86">
            <param key="origId" value="110_1"/>
            <param key="signalID" value="795 773 772 761 760 759 713 712 711"/>
        </lane>
    </edge>
    <edge id=":105_2" function="internal">
        <lane id=":105_2_0" index="0" disallow="pedestrian tram rail_urban rail rail_electric rail_fast ship" speed="8.86" length="5.03" width="3.50" shape="158.25,189.13 158.93,184.37 159.04,184.19">
            <param key="origId" value="129_1"/>
            <param key="signalID" value="760 761 753 808"/>
        </lane>
    </edge>
    <edge id=":105_12" function="internal">
        <lane id=":105_12_0" index="0" disallow="pedestrian tram rail_urban rail rail_electric rail_fast ship" speed="8.86" length="12.53" width="3.50" shape="159.04,184.19 160.97,180.97 164.37,178.93 169.14,178.25">
            <param key="origId" value="129_1"/>
            <param key="signalID" value="760 761 753 808"/>
        </lane>
    </edge>
    <edge id=":105_3" function="internal">
        <lane id=":105_3_0" index="0" disallow="pedestrian tram rail_urban rail rail_electric rail_fast ship" speed="7.41" length="11.91" width="3.50" shape="169.14,181.75 165.90,182.21 163.60,183.60 162.21,185.90 161.75,189.13">
            <param key="origId" value="128_1"/>
            <param key="signalID" value="758 757 756 737 736 735"/>
        </lane>
    </edge>
    <edge id=":105_4" function="internal">
        <lane id=":105_4_0" index="0" disallow="pedestrian tram rail_urban rail rail_electric rail_fast ship" speed="17.88" length="18.27" width="3.50" shape="169.14,181.75 150.86,181.75">
            <param key="origId" value="132_1"/>
            <param key="signalID" value="800 799 764 763 762 716 715"/>
        </lane>
    </edge>
    <edge id=":105_5" function="internal">
        <lane id=":105_5_0" index="0" disallow="pedestrian tram rail_urban rail rail_electric rail_fast ship" speed="8.86" length="5.03" width="3.50" shape="169.14,181.75 164.37,181.07 164.19,180.96">
            <param key="origId" value="118_1"/>
            <param key="signalID" value="754 755 756 807"/>
        </lane>
    </edge>
    <edge id=":105_13" function="internal">
        <lane id=":105_13_0" index="0" disallow="pedestrian tram rail_urban rail rail_electric rail_fast ship" speed="8.86" length="12.53" width="3.50" shape="164.19,180.96 160.97,179.03 158.93,175.63 158.25,170.86">
            <param key="origId" value="118_1"/>
            <param key="signalID" value="754 755 756 807"/>
        </lane>
    </edge>
    <edge id=":105_6" function="internal">
        <lane id=":105_6_0" index="0" disallow="pedestrian tram rail_urban rail rail_electric rail_fast ship" speed="7.41" length="11.91" width="3.50" shape="161.75,170.86 162.21,174.10 163.60,176.40 165.90,177.79 169.14,178.25">
            <param key="origId" value="122_1"/>
            <param key="signalID" value="800 799 764 763 762 716 715"/>
        </lane>
    </edge>
    <edge id=":105_7" function="internal">
        <lane id=":105_7_0" index="0" disallow="pedestrian tram rail_urban rail rail_electric rail_fast ship" speed="17.88" length="18.27" width="3.50" shape="161.75,170.86 161.75,189.13">
            <param key="origId" value="106_1"/>
            <param key="signalID" value="758 757 756 737 736 735"/>
        </lane>
    </edge>
    <edge id=":105_8" function="internal">
        <lane id=":105_8_0" index="0" disallow="pedestrian tram rail_urban rail rail_electric rail_fast ship" speed="8.86" length="5.03" width="3.50" shape="161.75,170.86 161.07,175.63 160.96,175.81">
            <param key="origId" value="113_1"/>
            <param key="signalID" value="795 773 772 761 760 759 713 712 711"/>
        </lane>
    </edge>
    <edge id=":105_14" function="internal">
        <lane id=":105_14_0" index="0" disallow="pedestrian tram rail_urban rail rail_electric rail_fast ship" speed="8.86" length="12.53" width="3.50" shape="160.96,175.81 159.03,179.03 155.63,181.07 150.86,181.75">
            <param key="origId" value="113_1"/>
            <param key="signalID" value="795 773 772 761 760 759 713 712 711"/>
        </lane>
    </edge>
    <edge id=":105_9" function="internal">
        <lane id=":105_9_0" index="0" disallow="pedestrian tram rail_urban rail rail_electric rail_fast ship" speed="7.41" length="11.91" width="3.50" shape="150.86,178.25 154.10,177.79 156.40,176.40 157.79,174.10 158.25,170.86">
            <param key="origId" value="117_-1"/>
            <param key="signalID" value="806 762 758 757"/>
        </lane>
    </edge>
    <edge id=":105_10" function="internal">
        <lane id=":105_10_0" index="0" disallow="pedestrian tram rail_urban rail rail_electric rail_fast ship" speed="17.88" length="18.27" width="3.50" shape="150.86,178.25 169.14,178.25">
            <param key="origId" value="136_-1"/>
            <param key="signalID" value="768 755 754 753 740 739 708"/>
        </lane>
    </edge>
    <edge id=":105_11" function="internal">
        <lane id=":105_11_0" index="0" disallow="pedestrian tram rail_urban rail rail_electric rail_fast ship" speed="8.86" length="5.03" width="3.50" shape="150.86,178.25 155.63,178.93 155.81,179.04">
            <param key="origId" value="124_-1"/>
            <param key="signalID" value="763 764 759 768 755 754 753 740 739 708"/>
        </lane>
    </edge>
    <edge id=":105_15" function="internal">
        <lane id=":105_15_0" index="0" disallow="pedestrian tram rail_urban rail rail_electric rail_fast ship" speed="8.86" length="12.53" width="3.50" shape="155.81,179.04 159.03,180.97 161.07,184.37 161.75,189.13">
            <param key="origId" value="124_-1"/>
            <param key="signalID" value="763 764 759 768 755 754 753 740 739 708"/>
        </lane>
    </edge>
    <edge id=":140_0" function="internal">
        <lane id=":140_0_0" index="0" disallow="pedestrian tram rail_urban rail rail_electric rail_fast ship" speed="7.41" length="11.91" width="3.50" shape="158.25,149.14 157.79,145.90 156.40,143.60 154.10,142.21 150.86,141.75">
            <param key="origId" value="159_-1"/>
            <param key="signalID" value="809 783 788 787"/>
        </lane>
    </edge>
    <edge id=":140_1" function="internal">
        <lane id=":140_1_0" index="0" disallow="pedestrian tram rail_urban rail rail_electric rail_fast ship" speed="17.88" length="18.27" width="3.50" shape="158.25,149.14 158.25,130.86">
            <param key="origId" value="167_-1"/>
            <param key="signalID" value="791 790 779 778 777 765 707 706 705"/>
        </lane>
    </edge>
    <edge id=":140_2" function="internal">
        <lane id=":140_2_0" index="0" disallow="pedestrian tram rail_urban rail rail_electric rail_fast ship" speed="8.86" length="5.03" width="3.50" shape="158.25,149.14 158.93,144.37 159.04,144.19">
            <param key="origId" value="142_-1"/>
            <param key="signalID" value="784 785 780 791 790 779 778 777 765 707 706 705"/>
        </lane>
    </edge>
    <edge id=":140_12" function="internal">
        <lane id=":140_12_0" index="0" disallow="pedestrian tram rail_urban rail rail_electric rail_fast ship" speed="8.86" length="12.53" width="3.50" shape="159.04,144.19 160.97,140.97 164.37,138.93 169.14,138.25">
            <param key="origId" value="142_-1"/>
            <param key="signalID" value="784 785 780 791 790 779 778 777 765 707 706 705"/>
        </lane>
    </edge>
    <edge id=":140_3" function="internal">
        <lane id=":140_3_0" index="0" disallow="pedestrian tram rail_urban rail rail_electric rail_fast ship" speed="7.41" length="11.91" width="3.50" shape="169.14,141.75 165.90,142.21 163.60,143.60 162.21,145.90 161.75,149.14">
            <param key="origId" value="141_1"/>
            <param key="signalID" value="812"/>
        </lane>
    </edge>
    <edge id=":140_4" function="internal">
        <lane id=":140_4_0" index="0" disallow="pedestrian tram rail_urban rail rail_electric rail_fast ship" speed="17.88" length="18.27" width="3.50" shape="169.14,141.75 150.86,141.75">
            <param key="origId" value="150_1"/>
            <param key="signalID" value="798 788 787 786 719 718 714"/>
        </lane>
    </edge>
    <edge id=":140_5" function="internal">
        <lane id=":140_5_0" index="0" disallow="pedestrian tram rail_urban rail rail_electric rail_fast ship" speed="8.86" length="5.03" width="3.50" shape="169.14,141.75 164.37,141.07 164.19,140.96">
            <param key="origId" value="154_1"/>
            <param key="signalID" value="798 788 787 786 719 718 714"/>
        </lane>
    </edge>
    <edge id=":140_13" function="internal">
        <lane id=":140_13_0" index="0" disallow="pedestrian tram rail_urban rail rail_electric rail_fast ship" speed="8.86" length="12.53" width="3.50" shape="164.19,140.96 160.97,139.03 158.93,135.63 158.25,130.86">
            <param key="origId" value="154_1"/>
            <param key="signalID" value="798 788 787 786 719 718 714"/>
        </lane>
    </edge>
    <edge id=":140_6" function="internal">
        <lane id=":140_6_0" index="0" disallow="pedestrian tram rail_urban rail rail_electric rail_fast ship" speed="7.41" length="11.91" width="3.50" shape="161.75,130.86 162.21,134.10 163.60,136.40 165.90,137.79 169.14,138.25">
            <param key="origId" value="158_-1"/>
            <param key="signalID" value="811 777 782 781"/>
        </lane>
    </edge>
    <edge id=":140_7" function="internal">
        <lane id=":140_7_0" index="0" disallow="pedestrian tram rail_urban rail rail_electric rail_fast ship" speed="17.88" length="18.27" width="3.50" shape="161.75,130.86 161.75,149.14">
            <param key="origId" value="164_-1"/>
            <param key="signalID" value="785 784 783 725 724 723"/>
        </lane>
    </edge>
    <edge id=":140_8" function="internal">
        <lane id=":140_8_0" index="0" disallow="pedestrian tram rail_urban rail rail_electric rail_fast ship" speed="8.86" length="5.03" width="3.50" shape="161.75,130.86 161.07,135.63 160.96,135.81">
            <param key="origId" value="171_-1"/>
            <param key="signalID" value="785 784 783 725 724 723"/>
        </lane>
    </edge>
    <edge id=":140_14" function="internal">
        <lane id=":140_14_0" index="0" disallow="pedestrian tram rail_urban rail rail_electric rail_fast ship" speed="8.86" length="12.53" width="3.50" shape="160.96,135.81 159.03,139.03 155.63,141.07 150.86,141.75">
            <param key="origId" value="171_-1"/>
            <param key="signalID" value="785 784 783 725 724 723"/>
        </lane>
    </edge>
    <edge id=":140_9" function="internal">
        <lane id=":140_9_0" index="0" disallow="pedestrian tram rail_urban rail rail_electric rail_fast ship" speed="7.41" length="11.91" width="3.50" shape="150.86,138.25 154.10,137.79 156.40,136.40 157.79,134.10 158.25,130.86">
            <param key="origId" value="174_-1"/>
            <param key="signalID" value="810 786 779 778"/>
        </lane>
    </edge>
    <edge id=":140_10" function="internal">
        <lane id=":140_10_0" index="0" disallow="pedestrian tram rail_urban rail rail_electric rail_fast ship" speed="17.88" length="18.27" width="3.50" shape="150.86,138.25 169.14,138.25">
            <param key="origId" value="146_-1"/>
            <param key="signalID" value="782 781 780 770 769 710 709"/>
        </lane>
    </edge>
    <edge id=":140_11" function="internal">
        <lane id=":140_11_0" index="0" disallow="pedestrian tram rail_urban rail rail_electric rail_fast ship" speed="8.86" length="5.03" width="3.50" shape="150.86,138.25 155.63,138.93 155.81,139.04">
            <param key="origId" value="160_-1"/>
            <param key="signalID" value="782 781 780 770 769 710 709"/>
        </lane>
    </edge>
    <edge id=":140_15" function="internal">
        <lane id=":140_15_0" index="0" disallow="pedestrian tram rail_urban rail rail_electric rail_fast ship" speed="8.86" length="12.53" width="3.50" shape="155.81,139.04 159.03,140.97 161.07,144.37 161.75,149.14">
            <param key="origId" value="160_-1"/>
            <param key="signalID" value="782 781 780 770 769 710 709"/>
        </lane>
    </edge>
    <edge id=":175_0" function="internal">
        <lane id=":175_0_0" index="0" disallow="pedestrian tram rail_urban rail rail_electric rail_fast ship" speed="8.86" length="17.55" width="3.50" shape="89.14,141.75 84.37,141.07 80.97,139.03 78.93,135.63 78.25,130.86">
            <param key="origId" value="177_1"/>
        </lane>
    </edge>
    <edge id=":175_1" function="internal">
        <lane id=":175_1_0" index="0" disallow="pedestrian tram rail_urban rail rail_electric rail_fast ship" speed="7.41" length="11.91" width="3.50" shape="81.75,130.86 82.21,134.10 83.60,136.40 85.90,137.79 89.14,138.25">
            <param key="origId" value="176_-1"/>
        </lane>
    </edge>
    <edge id=":180_0" function="internal">
        <lane id=":180_0_0" index="0" disallow="pedestrian tram rail_urban rail rail_electric rail_fast ship" speed="8.86" length="17.55" width="3.50" shape="241.75,130.86 241.07,135.63 239.03,139.03 235.63,141.07 230.86,141.75">
            <param key="origId" value="181_-1"/>
        </lane>
    </edge>
    <edge id=":180_1" function="internal">
        <lane id=":180_1_0" index="0" disallow="pedestrian tram rail_urban rail rail_electric rail_fast ship" speed="7.41" length="11.91" width="3.50" shape="230.86,138.25 234.10,137.79 236.40,136.40 237.79,134.10 238.25,130.86">
            <param key="origId" value="184_-1"/>
        </lane>
    </edge>
    <edge id=":185_0" function="internal">
        <lane id=":185_0_0" index="0" disallow="pedestrian tram rail_urban rail rail_electric rail_fast ship" speed="7.41" length="11.91" width="3.50" shape="178.25,169.14 177.79,165.90 176.40,163.60 174.10,162.21 170.86,161.75">
            <param key="origId" value="202_-1"/>
            <param key="signalID" value="813 795 800 799"/>
        </lane>
    </edge>
    <edge id=":185_1" function="internal">
        <lane id=":185_1_0" index="0" disallow="pedestrian tram rail_urban rail rail_electric rail_fast ship" speed="17.88" length="18.27" width="3.50" shape="178.25,169.14 178.25,150.86">
            <param key="origId" value="212_-1"/>
            <param key="signalID" value="791 790 789 756 728 727 705"/>
        </lane>
    </edge>
    <edge id=":185_2" function="internal">
        <lane id=":185_2_0" index="0" disallow="pedestrian tram rail_urban rail rail_electric rail_fast ship" speed="8.86" length="5.03" width="3.50" shape="178.25,169.14 178.93,164.37 179.04,164.19">
            <param key="origId" value="187_-1"/>
            <param key="signalID" value="796 797 792 791 790 789 756 728 727 705"/>
        </lane>
    </edge>
    <edge id=":185_12" function="internal">
        <lane id=":185_12_0" index="0" disallow="pedestrian tram rail_urban rail rail_electric rail_fast ship" speed="8.86" length="12.53" width="3.50" shape="179.04,164.19 180.97,160.97 184.37,158.93 189.13,158.25">
            <param key="origId" value="187_-1"/>
            <param key="signalID" value="796 797 792 791 790 789 756 728 727 705"/>
        </lane>
    </edge>
    <edge id=":185_3" function="internal">
        <lane id=":185_3_0" index="0" disallow="pedestrian tram rail_urban rail rail_electric rail_fast ship" speed="7.41" length="11.91" width="3.50" shape="189.13,161.75 185.90,162.21 183.60,163.60 182.21,165.90 181.75,169.14">
            <param key="origId" value="186_1"/>
            <param key="signalID" value="816"/>
        </lane>
    </edge>
    <edge id=":185_4" function="internal">
        <lane id=":185_4_0" index="0" disallow="pedestrian tram rail_urban rail rail_electric rail_fast ship" speed="17.88" length="18.27" width="3.50" shape="189.13,161.75 170.86,161.75">
            <param key="origId" value="191_1"/>
            <param key="signalID" value="800 799 798 734 733 732"/>
        </lane>
    </edge>
    <edge id=":185_5" function="internal">
        <lane id=":185_5_0" index="0" disallow="pedestrian tram rail_urban rail rail_electric rail_fast ship" speed="8.86" length="5.03" width="3.50" shape="189.13,161.75 184.37,161.07 184.19,160.96">
            <param key="origId" value="199_1"/>
            <param key="signalID" value="793 794 789 815"/>
        </lane>
    </edge>
    <edge id=":185_13" function="internal">
        <lane id=":185_13_0" index="0" disallow="pedestrian tram rail_urban rail rail_electric rail_fast ship" speed="8.86" length="12.53" width="3.50" shape="184.19,160.96 180.97,159.03 178.93,155.63 178.25,150.86">
            <param key="origId" value="199_1"/>
            <param key="signalID" value="793 794 789 815"/>
        </lane>
    </edge>
    <edge id=":185_6" function="internal">
        <lane id=":185_6_0" index="0" disallow="pedestrian tram rail_urban rail rail_electric rail_fast ship" speed="7.41" length="11.91" width="3.50" shape="181.75,150.86 182.21,154.10 183.60,156.40 185.90,157.79 189.13,158.25">
            <param key="origId" value="198_1"/>
            <param key="signalID" value="800 799 798 734 733 732"/>
        </lane>
    </edge>
    <edge id=":185_7" function="internal">
        <lane id=":185_7_0" index="0" disallow="pedestrian tram rail_urban rail rail_electric rail_fast ship" speed="17.88" length="18.27" width="3.50" shape="181.75,150.86 181.75,169.14">
            <param key="origId" value="207_1"/>
            <param key="signalID" value="797 796 795 785 784 713 712"/>
        </lane>
    </edge>
    <edge id=":185_8" function="internal">
        <lane id=":185_8_0" index="0" disallow="pedestrian tram rail_urban rail rail_electric rail_fast ship" speed="8.86" length="5.03" width="3.50" shape="181.75,150.86 181.07,155.63 180.96,155.81">
            <param key="origId" value="216_1"/>
            <param key="signalID" value="797 796 795 785 784 713 712"/>
        </lane>
    </edge>
    <edge id=":185_14" function="internal">
        <lane id=":185_14_0" index="0" disallow="pedestrian tram rail_urban rail rail_electric rail_fast ship" speed="8.86" length="12.53" width="3.50" shape="180.96,155.81 179.03,159.03 175.63,161.07 170.86,161.75">
            <param key="origId" value="216_1"/>
            <param key="signalID" value="797 796 795 785 784 713 712"/>
        </lane>
    </edge>
    <edge id=":185_9" function="internal">
        <lane id=":185_9_0" index="0" disallow="pedestrian tram rail_urban rail rail_electric rail_fast ship" speed="7.41" length="11.91" width="3.50" shape="170.86,158.25 174.10,157.79 176.40,156.40 177.79,154.10 178.25,150.86">
            <param key="origId" value="227_-1"/>
            <param key="signalID" value="814 798 791 790"/>
        </lane>
    </edge>
    <edge id=":185_10" function="internal">
        <lane id=":185_10_0" index="0" disallow="pedestrian tram rail_urban rail rail_electric rail_fast ship" speed="17.88" length="18.27" width="3.50" shape="170.86,158.25 189.13,158.25">
            <param key="origId" value="194_-1"/>
            <param key="signalID" value="794 793 792 780 755 754 710 709 708"/>
        </lane>
    </edge>
    <edge id=":185_11" function="internal">
        <lane id=":185_11_0" index="0" disallow="pedestrian tram rail_urban rail rail_electric rail_fast ship" speed="8.86" length="5.03" width="3.50" shape="170.86,158.25 175.63,158.93 175.81,159.04">
            <param key="origId" value="203_-1"/>
            <param key="signalID" value="794 793 792 780 755 754 710 709 708"/>
        </lane>
    </edge>
    <edge id=":185_15" function="internal">
        <lane id=":185_15_0" index="0" disallow="pedestrian tram rail_urban rail rail_electric rail_fast ship" speed="8.86" length="12.53" width="3.50" shape="175.81,159.04 179.03,160.97 181.07,164.37 181.75,169.14">
            <param key="origId" value="203_-1"/>
            <param key="signalID" value="794 793 792 780 755 754 710 709 708"/>
        </lane>
    </edge>
    <edge id=":228_0" function="internal">
        <lane id=":228_0_0" index="0" disallow="pedestrian tram rail_urban rail rail_electric rail_fast ship" speed="8.86" length="17.55" width="3.50" shape="189.13,241.75 184.37,241.07 180.97,239.03 178.93,235.63 178.25,230.86">
            <param key="origId" value="229_1"/>
        </lane>
    </edge>
    <edge id=":228_1" function="internal">
        <lane id=":228_1_0" index="0" disallow="pedestrian tram rail_urban rail rail_electric rail_fast ship" speed="7.41" length="11.91" width="3.50" shape="181.75,230.86 182.21,234.10 183.60,236.40 185.90,237.79 189.13,238.25">
            <param key="origId" value="234_-1"/>
        </lane>
    </edge>
    <edge id=":235_0" function="internal">
        <lane id=":235_0_0" index="0" disallow="pedestrian tram rail_urban rail rail_electric rail_fast ship" speed="17.88" length="16.00" width="3.50" shape="208.00,241.75 192.00,241.75">
            <param key="origId" value="237_1"/>
        </lane>
    </edge>
    <edge id=":235_1" function="internal">
        <lane id=":235_1_0" index="0" disallow="pedestrian tram rail_urban rail rail_electric rail_fast ship" speed="17.88" length="16.00" width="3.50" shape="192.00,238.25 208.00,238.25">
            <param key="origId" value="238_-1"/>
        </lane>
    </edge>
    <edge id=":240_0" function="internal">
        <lane id=":240_0_0" index="0" disallow="pedestrian tram rail_urban rail rail_electric rail_fast ship" speed="7.41" length="11.91" width="3.50" shape="238.25,89.14 237.79,85.90 236.40,83.60 234.10,82.21 230.86,81.75">
            <param key="origId" value="280_1"/>
            <param key="signalID" value="817"/>
        </lane>
    </edge>
    <edge id=":240_1" function="internal">
        <lane id=":240_1_0" index="0" disallow="pedestrian tram rail_urban rail rail_electric rail_fast ship" speed="17.88" length="18.27" width="3.50" shape="238.25,89.14 238.25,70.86">
            <param key="origId" value="247_1"/>
            <param key="signalID" value="695 694 693"/>
        </lane>
    </edge>
    <edge id=":240_2" function="internal">
        <lane id=":240_2_0" index="0" disallow="pedestrian tram rail_urban rail rail_electric rail_fast ship" speed="8.86" length="5.03" width="3.50" shape="238.25,89.14 238.93,84.37 239.04,84.19">
            <param key="origId" value="264_1"/>
            <param key="signalID" value="700 701 696 820"/>
        </lane>
    </edge>
    <edge id=":240_12" function="internal">
        <lane id=":240_12_0" index="0" disallow="pedestrian tram rail_urban rail rail_electric rail_fast ship" speed="8.86" length="12.53" width="3.50" shape="239.04,84.19 240.97,80.97 244.37,78.93 249.14,78.25">
            <param key="origId" value="264_1"/>
            <param key="signalID" value="700 701 696 820"/>
        </lane>
    </edge>
    <edge id=":240_3" function="internal">
        <lane id=":240_3_0" index="0" disallow="pedestrian tram rail_urban rail rail_electric rail_fast ship" speed="7.41" length="11.91" width="3.50" shape="249.14,81.75 245.90,82.21 243.60,83.60 242.21,85.90 241.75,89.14">
            <param key="origId" value="271_1"/>
            <param key="signalID" value="695 694 693"/>
        </lane>
    </edge>
    <edge id=":240_4" function="internal">
        <lane id=":240_4_0" index="0" disallow="pedestrian tram rail_urban rail rail_electric rail_fast ship" speed="17.88" length="18.27" width="3.50" shape="249.14,81.75 230.86,81.75">
            <param key="origId" value="275_1"/>
            <param key="signalID" value="704 703 702"/>
        </lane>
    </edge>
    <edge id=":240_5" function="internal">
        <lane id=":240_5_0" index="0" disallow="pedestrian tram rail_urban rail rail_electric rail_fast ship" speed="8.86" length="5.03" width="3.50" shape="249.14,81.75 244.37,81.07 244.19,80.96">
            <param key="origId" value="242_1"/>
            <param key="signalID" value="704 703 702"/>
        </lane>
    </edge>
    <edge id=":240_13" function="internal">
        <lane id=":240_13_0" index="0" disallow="pedestrian tram rail_urban rail rail_electric rail_fast ship" speed="8.86" length="12.53" width="3.50" shape="244.19,80.96 240.97,79.03 238.93,75.63 238.25,70.86">
            <param key="origId" value="242_1"/>
            <param key="signalID" value="704 703 702"/>
        </lane>
    </edge>
    <edge id=":240_6" function="internal">
        <lane id=":240_6_0" index="0" disallow="pedestrian tram rail_urban rail rail_electric rail_fast ship" speed="7.41" length="11.91" width="3.50" shape="241.75,70.86 242.21,74.10 243.60,76.40 245.90,77.79 249.14,78.25">
            <param key="origId" value="241_-1"/>
            <param key="signalID" value="819 693 698 697"/>
        </lane>
    </edge>
    <edge id=":240_7" function="internal">
        <lane id=":240_7_0" index="0" disallow="pedestrian tram rail_urban rail rail_electric rail_fast ship" speed="17.88" length="18.27" width="3.50" shape="241.75,70.86 241.75,89.14">
            <param key="origId" value="252_-1"/>
            <param key="signalID" value="701 700 699"/>
        </lane>
    </edge>
    <edge id=":240_8" function="internal">
        <lane id=":240_8_0" index="0" disallow="pedestrian tram rail_urban rail rail_electric rail_fast ship" speed="8.86" length="5.03" width="3.50" shape="241.75,70.86 241.07,75.63 240.96,75.81">
            <param key="origId" value="255_-1"/>
            <param key="signalID" value="701 700 699"/>
        </lane>
    </edge>
    <edge id=":240_14" function="internal">
        <lane id=":240_14_0" index="0" disallow="pedestrian tram rail_urban rail rail_electric rail_fast ship" speed="8.86" length="12.53" width="3.50" shape="240.96,75.81 239.03,79.03 235.63,81.07 230.86,81.75">
            <param key="origId" value="255_-1"/>
            <param key="signalID" value="701 700 699"/>
        </lane>
    </edge>
    <edge id=":240_9" function="internal">
        <lane id=":240_9_0" index="0" disallow="pedestrian tram rail_urban rail rail_electric rail_fast ship" speed="7.41" length="11.91" width="3.50" shape="230.86,78.25 234.10,77.79 236.40,76.40 237.79,74.10 238.25,70.86">
            <param key="origId" value="260_-1"/>
            <param key="signalID" value="818 702 695 694"/>
        </lane>
    </edge>
    <edge id=":240_10" function="internal">
        <lane id=":240_10_0" index="0" disallow="pedestrian tram rail_urban rail rail_electric rail_fast ship" speed="17.88" length="18.27" width="3.50" shape="230.86,78.25 249.14,78.25">
            <param key="origId" value="272_-1"/>
            <param key="signalID" value="698 697 696"/>
        </lane>
    </edge>
    <edge id=":240_11" function="internal">
        <lane id=":240_11_0" index="0" disallow="pedestrian tram rail_urban rail rail_electric rail_fast ship" speed="8.86" length="5.03" width="3.50" shape="230.86,78.25 235.63,78.93 235.81,79.04">
            <param key="origId" value="281_-1"/>
            <param key="signalID" value="703 704 699 698 697 696"/>
        </lane>
    </edge>
    <edge id=":240_15" function="internal">
        <lane id=":240_15_0" index="0" disallow="pedestrian tram rail_urban rail rail_electric rail_fast ship" speed="8.86" length="12.53" width="3.50" shape="235.81,79.04 239.03,80.97 241.07,84.37 241.75,89.14">
            <param key="origId" value="281_-1"/>
            <param key="signalID" value="703 704 699 698 697 696"/>
        </lane>
    </edge>
    <edge id=":288_0" function="internal">
        <lane id=":288_0_0" index="0" disallow="pedestrian tram rail_urban rail rail_electric rail_fast ship" speed="7.41" length="11.91" width="3.50" shape="198.25,169.14 197.79,165.90 196.40,163.60 194.10,162.21 190.87,161.75">
            <param key="origId" value="289_1"/>
            <param key="signalID" value="824"/>
        </lane>
    </edge>
    <edge id=":288_1" function="internal">
        <lane id=":288_1_0" index="0" disallow="pedestrian tram rail_urban rail rail_electric rail_fast ship" speed="17.88" length="18.27" width="3.50" shape="198.25,169.14 198.25,150.86">
            <param key="origId" value="301_1"/>