[General]
network = MetsrVeinsBridgeNetwork
sim-time-limit = 7d
cmdenv-express-mode = true
cmdenv-autoflush = true
cmdenv-status-frequency = 1s

*.bridge.bridgeHost = "0.0.0.0"
*.bridge.bridgePort = 9099
*.bridge.baseLatencyMs = 8
*.bridge.perMessageLatencyMs = 0.35
*.bridge.perPayloadByteLatencyUs = 0.04
*.bridge.contentionLossSlope = 0.0002
*.bridge.bitrateMbps = 6
*.bridge.macSlotTimeMs = 0.013
*.bridge.maxJitterMs = 0.25
*.bridge.communicationRangeM = 1000
*.bridge.pollIntervalMs = 10
*.bridge.radioAccess = "cv2x"
*.bridge.logRequests = true
