[General]
network = metsr.veinsbridge.MetsrVeinsBridgeNetwork
sim-time-limit = 365d
cmdenv-express-mode = false
cmdenv-autoflush = true

*.bridge.bridgeHost = "0.0.0.0"
*.bridge.bridgePort = 9099
*.bridge.baseLatencyMs = 8
*.bridge.perMessageLatencyMs = 0.35
*.bridge.perPayloadByteLatencyUs = 0.04
*.bridge.contentionLossSlope = 0.002
*.bridge.radioAccess = "cv2x"
